 xtb: 6.6.1 (8d0f1dd)
          03262415203D

 32 34  0     0  0            999 V2000
    0.5528   -2.4916    1.2242 Br  0  0  0  0  0  0  0  0  0  0  0  0
    1.4155   -0.9749    0.4722 C   0  0  0  0  0  0  0  0  0  0  0  0
    0.5894   -0.0051   -0.0636 C   0  0  0  0  0  0  0  0  0  0  0  0
   -0.7399   -0.2454    0.0079 O   0  0  0  0  0  0  0  0  0  0  0  0
   -1.6460    0.6993   -0.5104 C   0  0  0  0  0  0  0  0  0  0  0  0
   -3.0631    0.2203   -0.3145 C   0  0  0  0  0  0  0  0  0  0  0  0
   -3.3489   -0.9937    0.2905 C   0  0  0  0  0  0  0  0  0  0  0  0
   -4.6648   -1.3954    0.4506 C   0  0  0  0  0  0  0  0  0  0  0  0
   -5.6999   -0.5909    0.0093 C   0  0  0  0  0  0  0  0  0  0  0  0
   -5.4173    0.6230   -0.5958 C   0  0  0  0  0  0  0  0  0  0  0  0
   -4.1053    1.0268   -0.7569 C   0  0  0  0  0  0  0  0  0  0  0  0
    1.1756    1.1405   -0.6346 C   0  0  0  0  0  0  0  0  0  0  0  0
    2.5350    1.2829   -0.6547 C   0  0  0  0  0  0  0  0  0  0  0  0
    3.3869    0.3027   -0.1122 C   0  0  0  0  0  0  0  0  0  0  0  0
    4.7900    0.4422   -0.1288 C   0  0  0  0  0  0  0  0  0  0  0  0
    5.5976   -0.5220    0.4044 C   0  0  0  0  0  0  0  0  0  0  0  0
    5.0347   -1.6718    0.9794 C   0  0  0  0  0  0  0  0  0  0  0  0
    3.6793   -1.8408    1.0127 C   0  0  0  0  0  0  0  0  0  0  0  0
    2.8181   -0.8643    0.4709 C   0  0  0  0  0  0  0  0  0  0  0  0
   -1.5181    1.6669   -0.0003 H   0  0  0  0  0  0  0  0  0  0  0  0
   -1.4619    0.8514   -1.5855 H   0  0  0  0  0  0  0  0  0  0  0  0
   -2.5438   -1.6223    0.6355 H   0  0  0  0  0  0  0  0  0  0  0  0
   -4.8784   -2.3427    0.9229 H   0  0  0  0  0  0  0  0  0  0  0  0
   -6.7251   -0.9062    0.1348 H   0  0  0  0  0  0  0  0  0  0  0  0
   -6.2205    1.2563   -0.9428 H   0  0  0  0  0  0  0  0  0  0  0  0
   -3.8845    1.9742   -1.2290 H   0  0  0  0  0  0  0  0  0  0  0  0
    0.5498    1.9096   -1.0586 H   0  0  0  0  0  0  0  0  0  0  0  0
    2.9743    2.1657   -1.0954 H   0  0  0  0  0  0  0  0  0  0  0  0
    5.2120    1.3317   -0.5740 H   0  0  0  0  0  0  0  0  0  0  0  0
    6.6710   -0.4066    0.3872 H   0  0  0  0  0  0  0  0  0  0  0  0
    5.6828   -2.4272    1.3980 H   0  0  0  0  0  0  0  0  0  0  0  0
    3.2526   -2.7278    1.4565 H   0  0  0  0  0  0  0  0  0  0  0  0
  1  2  1  0  0  0  0
  2  3  4  0  0  0  0
  3  4  1  0  0  0  0
  4  5  1  0  0  0  0
  5  6  1  0  0  0  0
  6  7  4  0  0  0  0
  7  8  4  0  0  0  0
  8  9  4  0  0  0  0
  9 10  4  0  0  0  0
  6 11  4  0  0  0  0
 10 11  4  0  0  0  0
  3 12  4  0  0  0  0
 12 13  2  0  0  0  0
 13 14  4  0  0  0  0
 14 15  4  0  0  0  0
 15 16  2  0  0  0  0
 16 17  4  0  0  0  0
 17 18  2  0  0  0  0
  2 19  4  0  0  0  0
 14 19  4  0  0  0  0
 18 19  4  0  0  0  0
  5 20  1  0  0  0  0
  5 21  1  0  0  0  0
  7 22  1  0  0  0  0
  8 23  1  0  0  0  0
  9 24  1  0  0  0  0
 10 25  1  0  0  0  0
 11 26  1  0  0  0  0
 12 27  1  0  0  0  0
 13 28  1  0  0  0  0
 15 29  1  0  0  0  0
 16 30  1  0  0  0  0
 17 31  1  0  0  0  0
 18 32  1  0  0  0  0
M  END
