57
C=CCN([C@@H](C)CP(c1ccccc1)c1ccccc1)[S@](=O)C(C)(C)C///Ni///C=CCN1[C@@H](C)CP(c2ccccc2)(c2ccccc2)->[Ni]<-[S@@]1(=O)C(C)(C)C
C     -4.279083    3.216041    0.818751
C     -3.756606    2.172522    0.189944
C     -3.106522    1.029275    0.889402
N     -1.785996    0.785085    0.584981
C     -0.797972    1.683417    0.954594
C     -0.726237    1.743975    2.490695
C      0.521994    1.621298    0.298643
P      1.378796   -0.006258    0.139108
C      2.388482   -0.549441    1.641514
C      2.548402    0.232921    2.727735
C      3.289257   -0.150962    3.822465
C      3.892330   -1.382524    3.811593
C      3.763188   -2.218736    2.733160
C      3.002914   -1.791543    1.642828
C      2.493750   -0.071017   -1.339801
C      3.758979    0.533266   -1.320309
C      4.611163    0.528701   -2.370736
C      4.252436   -0.094843   -3.544007
C      3.029699   -0.698145   -3.612608
C      2.191101   -0.674629   -2.530090
Ni    -0.068861   -1.411835   -0.042277
S     -1.295486   -0.316162   -0.611264
O     -0.795832    0.536345   -1.818655
C     -2.630279   -1.309731   -1.305188
C     -3.693649   -0.522767   -1.983064
C     -1.967157   -2.174113   -2.389332
C     -3.176959   -2.284473   -0.276330
H     -4.261272    3.296719    1.914025
H     -4.739978    4.026855    0.291363
H     -3.808317    2.157863   -0.889797
H     -3.198151    1.291310    1.994576
H     -3.813686    0.177338    0.786359
H     -1.210959    2.719873    0.721845
H     -1.636122    2.192252    2.922102
H     -0.431872    0.787063    2.935754
H      0.091730    2.479138    2.747854
H      1.211754    2.265724    0.886948
H      0.430532    2.158686   -0.682753
H      2.096437    1.189911    2.762895
H      3.406921    0.496289    4.688008
H      4.478770   -1.705211    4.662907
H      4.207066   -3.197989    2.651805
H      2.900941   -2.462619    0.780474
H      4.028465    1.024081   -0.383435
H      5.571194    1.003237   -2.316230
H      4.947526   -0.098217   -4.403891
H      2.723652   -1.187880   -4.508709
H      1.205793   -1.165984   -2.601857
H     -3.253656    0.415264   -2.407067
H     -4.605549   -0.352751   -1.381464
H     -4.085567   -1.048516   -2.909666
H     -2.690172   -2.777755   -2.934893
H     -1.327197   -1.558368   -3.048138
H     -1.284392   -2.861533   -1.843329
H     -4.303526   -2.228713   -0.240948
H     -2.957996   -3.344125   -0.525484
H     -2.734220   -2.117610    0.729001
